test.xyz
 OpenBabel04122112113D

 50 52  0  0  1  0  0  0  0  0999 V2000
   82.4620   13.8920   28.5730 C   0  0  1  0  0  0  0  0  0  0  0  0
   81.3010   13.4030   29.4660 C   0  0  1  0  0  0  0  0  0  0  0  0
   80.1710   14.3650   29.0750 C   0  0  1  0  0  0  0  0  0  0  0  0
   80.9400   15.6800   28.7890 C   0  0  2  0  0  0  0  0  0  0  0  0
   82.2440   15.2920   28.3210 O   0  0  0  0  0  0  0  0  0  0  0  0
   85.8930   11.3770   27.2460 C   0  0  0  0  0  0  0  0  0  0  0  0
   86.9530   11.4000   28.1040 N   0  0  0  0  0  0  0  0  0  0  0  0
   86.9420   12.1390   29.2490 C   0  0  0  0  0  0  0  0  0  0  0  0
   85.7920   12.8910   29.5330 C   0  0  0  0  0  0  0  0  0  0  0  0
   84.7200   12.8530   28.6490 C   0  0  0  0  0  0  0  0  0  0  0  0
   84.7740   12.1070   27.5160 N   0  0  0  0  0  0  0  0  0  0  0  0
   83.7540   13.6430   29.1490 N   0  0  0  0  0  0  0  0  0  0  0  0
   84.2430   14.1370   30.3120 C   0  0  0  0  0  0  0  0  0  0  0  0
   85.4900   13.6950   30.5620 N   0  0  0  0  0  0  0  0  0  0  0  0
   88.0000   12.1350   30.0790 N   0  0  0  0  0  0  0  0  0  0  0  0
   88.9370   12.1110   29.7040 H   0  0  0  0  0  0  0  0  0  0  0  0
   87.8560   12.1540   31.0800 H   0  0  0  0  0  0  0  0  0  0  0  0
   79.4890   13.9010   27.9080 O   0  0  0  0  0  0  0  0  0  0  0  0
   80.0390   13.2630   27.4480 H   0  0  0  0  0  0  0  0  0  0  0  0
   80.9680   12.0310   29.2610 O   0  0  0  0  0  0  0  0  0  0  0  0
   81.4760   11.6860   28.5230 H   0  0  0  0  0  0  0  0  0  0  0  0
   81.0640   16.6070   30.0400 C   0  0  0  0  0  0  0  0  0  0  0  0
   80.0150   17.7610   30.1220 C   0  0  1  0  0  0  0  0  0  0  0  0
   80.6940   18.9950   30.5610 N   0  3  0  0  0  3  0  0  0  0  0  0
   80.2190   19.8830   30.4940 H   0  0  0  0  0  0  0  0  0  0  0  0
   81.6340   18.9500   30.9290 H   0  0  0  0  0  0  0  0  0  0  0  0
   79.2710   18.0520   28.7780 C   0  0  0  0  0  0  0  0  0  0  0  0
   80.0160   18.9900   27.7780 C   0  0  0  0  0  0  0  0  0  0  0  0
   80.8740   18.2450   26.7100 C   0  0  2  0  0  0  0  0  0  0  0  0
   82.3120   18.2830   27.0120 N   0  3  0  0  0  3  0  0  0  0  0  0
   82.9700   17.8320   26.3940 H   0  0  0  0  0  0  0  0  0  0  0  0
   82.6420   18.7620   27.8380 H   0  0  0  0  0  0  0  0  0  0  0  0
   80.6720   18.8250   25.3630 C   0  0  0  0  0  0  0  0  0  0  0  0
   79.5240   19.0370   24.9130 O   0  0  0  0  0  0  0  0  0  0  0  0
   81.7300   19.1510   24.5820 O   0  0  0  0  0  0  0  0  0  0  0  0
   81.4310   19.2840   23.6790 H   0  0  0  0  0  0  0  0  0  0  0  0
   82.4059   13.3625   27.6219 H   0  0  0  0  0  0  0  0  0  0  0  0
   81.5610   13.5585   30.5130 H   0  0  0  0  0  0  0  0  0  0  0  0
   79.4738   14.4978   29.9022 H   0  0  0  0  0  0  0  0  0  0  0  0
   80.4272   16.2238   27.9957 H   0  0  0  0  0  0  0  0  0  0  0  0
   85.9405   10.7778   26.3487 H   0  0  0  0  0  0  0  0  0  0  0  0
   83.6974   14.8057   30.9613 H   0  0  0  0  0  0  0  0  0  0  0  0
   82.0575   17.0553   30.0297 H   0  0  0  0  0  0  0  0  0  0  0  0
   80.9719   15.9925   30.9355 H   0  0  0  0  0  0  0  0  0  0  0  0
   79.2716   17.4943   30.8732 H   0  0  0  0  0  0  0  0  0  0  0  0
   78.3135   18.5137   29.0192 H   0  0  0  0  0  0  0  0  0  0  0  0
   79.0784   17.1021   28.2794 H   0  0  0  0  0  0  0  0  0  0  0  0
   79.2716   19.5921   27.2570 H   0  0  0  0  0  0  0  0  0  0  0  0
   80.6671   19.6556   28.3447 H   0  0  0  0  0  0  0  0  0  0  0  0
   80.5576   17.2023   26.6841 H   0  0  0  0  0  0  0  0  0  0  0  0
  1 12  1  0  0  0  0
  1  2  1  0  0  0  0
  1 37  1  6  0  0  0
  2 20  1  0  0  0  0
  2 38  1  1  0  0  0
  3 18  1  0  0  0  0
  3  2  1  0  0  0  0
  3 39  1  1  0  0  0
  4  3  1  0  0  0  0
  4 22  1  0  0  0  0
  4 40  1  6  0  0  0
  5  1  1  0  0  0  0
  5  4  1  0  0  0  0
  6 11  2  0  0  0  0
  6  7  1  0  0  0  0
  7  8  2  0  0  0  0
  8  9  1  0  0  0  0
  8 15  1  0  0  0  0
  9 14  1  0  0  0  0
 10 12  1  0  0  0  0
 10  9  2  0  0  0  0
 11 10  1  0  0  0  0
 12 13  1  0  0  0  0
 13 14  2  0  0  0  0
 15 17  1  0  0  0  0
 16 15  1  0  0  0  0
 19 18  1  0  0  0  0
 21 20  1  0  0  0  0
 22 23  1  0  0  0  0
 23 27  1  0  0  0  0
 23 24  1  0  0  0  0
 23 45  1  1  0  0  0
 24 26  1  0  0  0  0
 25 24  1  0  0  0  0
 28 27  1  0  0  0  0
 29 30  1  0  0  0  0
 29 28  1  0  0  0  0
 29 50  1  6  0  0  0
 30 32  1  0  0  0  0
 31 30  1  0  0  0  0
 33 29  1  0  0  0  0
 34 33  2  0  0  0  0
 35 33  1  0  0  0  0
 36 35  1  0  0  0  0
 41  6  1  0  0  0  0
 42 13  1  0  0  0  0
 43 22  1  0  0  0  0
 44 22  1  0  0  0  0
 46 27  1  0  0  0  0
 47 27  1  0  0  0  0
 48 28  1  0  0  0  0
 49 28  1  0  0  0  0
M  CHG  0  24   1  30   1
M  END
$$$$
